Circuit: * E:\Desktop\Uni\MIEET\3º Ano\Projeto em Engenharia Eletrótecnica\GitHub_PEE\Hardware\PCBs\BME680_board\Simulations\LS.asc

Limiting rise time of source v3 to 5e-05
Limiting fall time of source v3 to 5e-05
.OP point found by inspection.

Date: Wed May 20 16:12:43 2020
Total elapsed time: 0.138 seconds.

tnom = 27
temp = 27
method = modified trap
totiter = 3944
traniter = 3944
tranpoints = 1667
accept = 1487
rejected = 180
matrix size = 11
fillins = 0
solver = Normal
Matrix Compiler1:      31 opcodes  0.1/[0.1]/0.1
Matrix Compiler2:      67 opcodes  0.1/[0.1]/0.1

